LAMMPS (7 Aug 2019)
# Rhodopsin model

variable	x index 1
variable	y index 1
variable	z index 1

units           real
neigh_modify    delay 5 every 1

atom_style      full
atom_modify	map hash
bond_style      harmonic
angle_style     charmm
dihedral_style  charmm
improper_style  harmonic
pair_style      lj/charmm/coul/long 8.0 10.0
pair_modify     mix arithmetic
kspace_style    pppm 1e-4

read_data       data.rhodo
  orthogonal box = (-27.5 -38.5 -36.3646) to (27.5 38.5 36.3615)
  reading atoms ...
  32000 atoms
  reading velocities ...
  32000 velocities
  scanning bonds ...
  scanning angles ...
  scanning dihedrals ...
  scanning impropers ...
  reading bonds ...
  27723 bonds
  reading angles ...
  40467 angles
  reading dihedrals ...
  56829 dihedrals
  reading impropers ...
  1034 impropers

replicate	$x $y $z
replicate	1 $y $z
replicate	1 1 $z
replicate	1 1 1
  orthogonal box = (-27.5 -38.5 -36.3646) to (27.5 38.5 36.3615)
  32000 atoms
  27723 bonds
  40467 angles
  56829 dihedrals
  1034 impropers
  replicate CPU = 0.0238559 secs

fix             1 all shake 0.0001 5 0 m 1.0 a 232
  find clusters CPU = 0.00199294 secs
fix             2 all npt temp 300.0 300.0 100.0 		z 0.0 0.0 1000.0 mtk no pchain 0 tchain 1

special_bonds   charmm

thermo          50
thermo_style    one
timestep        2.0

run		1000
PPPM initialization ...
  G vector (1/distance) = 0.248835
  grid = 25 32 32
  stencil order = 5
  estimated absolute RMS force accuracy = 0.0355478
  estimated relative force accuracy = 0.000107051
  3d grid and FFT values/proc = 7938 3328
  update every 1 steps, delay 5 steps, check yes
Step Temp E_pair E_mol TotEng Press Volume
0    299.03967   -65685.704    18884.666   -25356.206   -149.33011    307995.03
Averages over the last 11 of 21 rows, steps 500 to 1000:
Temp E_pair E_mol TotEng Press Volume
300.277 -65576.9 18984.5 -25058.8 36.5595 309939
Loop time of 43.3459 on 8 procs for 1000 steps with 32000 atoms
